Version 4
SHEET 1 904 680
WIRE 816 -96 672 -96
WIRE 816 -64 816 -96
WIRE 592 -32 544 -32
WIRE 672 -32 672 -96
WIRE 144 48 80 48
WIRE 256 48 224 48
WIRE 288 48 256 48
WIRE 544 48 544 -32
WIRE 544 48 320 48
WIRE 816 64 816 48
WIRE 816 64 800 64
WIRE 288 80 288 48
WIRE 320 80 320 48
WIRE 800 80 800 64
WIRE 848 80 848 48
WIRE 80 96 80 48
WIRE 816 112 752 112
WIRE 816 128 816 112
WIRE 544 176 544 48
WIRE 592 176 544 176
WIRE 752 176 752 112
WIRE 752 176 672 176
WIRE 80 208 80 176
WIRE 288 224 288 192
WIRE 320 256 320 192
WIRE 368 256 320 256
WIRE 816 256 816 240
WIRE 816 256 800 256
WIRE 848 272 848 240
WIRE 800 288 800 256
WIRE 624 448 576 448
WIRE 624 576 624 528
FLAG 80 208 0
FLAG 288 224 0
FLAG 256 48 in
FLAG 800 288 0
FLAG 800 80 0
FLAG 848 272 VCC
FLAG 848 80 VCC
FLAG 624 576 0
FLAG 368 256 VCC
FLAG 576 448 VCC
SYMBOL AutoGenerated\\SN74LS04 304 128 R90
SYMATTR InstName U1
SYMBOL voltage 80 80 R0
WINDOW 3 -278 114 Left 2
WINDOW 123 0 0 Left 0
WINDOW 39 0 0 Left 0
SYMATTR Value PULSE(0 5 0 1u 1u 0.0005 0.001)
SYMATTR InstName V1
SYMBOL res 240 32 R90
WINDOW 0 0 56 VBottom 2
WINDOW 3 32 56 VTop 2
SYMATTR InstName R1
SYMATTR Value 1k
SYMBOL res 688 -48 R90
WINDOW 0 0 56 VBottom 2
WINDOW 3 32 56 VTop 2
SYMATTR InstName R2
SYMATTR Value 1k
SYMBOL res 688 160 R90
WINDOW 0 0 56 VBottom 2
WINDOW 3 32 56 VTop 2
SYMATTR InstName R3
SYMATTR Value 1k
SYMBOL AutoGenerated\\SN74LS04 832 -16 R90
SYMATTR InstName U2
SYMBOL AutoGenerated\\SN74LS04 832 176 R90
SYMATTR InstName U3
SYMBOL voltage 624 432 R0
WINDOW 123 0 0 Left 0
WINDOW 39 0 0 Left 0
SYMATTR InstName V3
SYMATTR Value 5
TEXT -200 408 Left 2 !.tran 10ms
