Version 4
SHEET 1 968 680
WIRE 688 -48 544 -48
WIRE 688 -16 688 -48
WIRE 464 16 416 16
WIRE 544 16 544 -48
WIRE 16 96 -48 96
WIRE 128 96 96 96
WIRE 160 96 128 96
WIRE 416 96 416 16
WIRE 416 96 192 96
WIRE 688 112 688 96
WIRE 688 112 672 112
WIRE 160 128 160 96
WIRE 192 128 192 96
WIRE 672 128 672 112
WIRE 720 128 720 96
WIRE -48 144 -48 96
WIRE 688 160 624 160
WIRE 688 176 688 160
WIRE 416 224 416 96
WIRE 464 224 416 224
WIRE 624 224 624 160
WIRE 624 224 544 224
WIRE -48 256 -48 224
WIRE 160 272 160 240
WIRE 192 304 192 240
WIRE 240 304 192 304
WIRE 688 304 688 288
WIRE 688 304 672 304
WIRE 720 320 720 288
WIRE 672 336 672 304
WIRE 496 496 448 496
WIRE 496 624 496 576
FLAG -48 256 0
FLAG 160 272 0
FLAG 128 96 in
FLAG 672 336 0
FLAG 672 128 0
FLAG 720 320 VCC
FLAG 720 128 VCC
FLAG 496 624 0
FLAG 240 304 VCC
FLAG 448 496 VCC
SYMBOL voltage -48 128 R0
WINDOW 3 -278 114 Left 2
WINDOW 123 0 0 Left 0
WINDOW 39 0 0 Left 0
SYMATTR Value PULSE(0 5 0 1u 1u 0.0005 0.001)
SYMATTR InstName V1
SYMBOL res 112 80 R90
WINDOW 0 0 56 VBottom 2
WINDOW 3 32 56 VTop 2
SYMATTR InstName R1
SYMATTR Value 1k
SYMBOL res 560 0 R90
WINDOW 0 0 56 VBottom 2
WINDOW 3 32 56 VTop 2
SYMATTR InstName R2
SYMATTR Value 1K
SYMBOL res 560 208 R90
WINDOW 0 0 56 VBottom 2
WINDOW 3 32 56 VTop 2
SYMATTR InstName R3
SYMATTR Value 1K
SYMBOL voltage 496 480 R0
WINDOW 123 0 0 Left 0
WINDOW 39 0 0 Left 0
SYMATTR InstName V2
SYMATTR Value 5
SYMBOL AutoGenerated\\CD4069UB 176 176 R90
SYMATTR InstName U4
SYMBOL AutoGenerated\\CD4069UB 704 32 R90
SYMATTR InstName U1
SYMBOL AutoGenerated\\CD4069UB 704 224 R90
SYMATTR InstName U5
TEXT -328 456 Left 2 !.tran 10ms
